<?xml version="1.0" encoding="UTF-8"?>

<!-- generated on 2024-01-11 23:55:23.665236 by addStops2Routes.py v1_19_0+0000-baa66a0f364
<configuration>
    <net-file value=".\osm.net.xml.gz"/>
    <route-files value=".\osm.passenger.trips.xml"/>
    <output-file value="parking.rou.xml"/>
    <duration value="3200"/>
    <parking-areas value=".\parkingAreas.add.xml"/>
</configuration>
-->

<routes xmlns:xsi="http://www.w3.org/2001/XMLSchema-instance" xsi:noNamespaceSchemaLocation="http://sumo.dlr.de/xsd/routes_file.xsd">
    <vType id="veh_passenger" vClass="passenger"/>
    <trip depart="0.00" departLane="best" departSpeed="max" from="169460483#0" id="veh0" to="-169460461#0" type="veh_passenger"/>
    <trip depart="25.82" departLane="best" from="59870822#0" id="veh3" to="-169460475#4" type="veh_passenger"/>
    <trip depart="34.43" departLane="best" departSpeed="max" from="-59871343#6" id="veh4" to="-169460463#0" type="veh_passenger"/>
    <trip depart="43.04" departLane="best" from="-192776756#0" id="veh5" to="169460475#1" type="veh_passenger"/>
    <trip depart="51.65" departLane="best" from="169460461#1" id="veh6" to="-192776692" type="veh_passenger"/>
    <trip depart="60.25" departLane="best" from="192776756#0" id="veh7" to="192776646#2" type="veh_passenger">
        <stop duration="3200" parkingArea="pa_38"/>
    </trip>
    <trip depart="68.86" departLane="best" from="214171972" id="veh8" to="152469310#2" type="veh_passenger">
        <stop duration="3200" parkingArea="pa_7"/>
    </trip>
    <trip depart="77.47" departLane="best" from="214171974#1" id="veh9" to="-169460482#2" type="veh_passenger"/>
    <trip depart="86.08" departLane="best" from="884821115#2" id="veh10" to="-214171974#0" type="veh_passenger">
        <stop duration="3200" parkingArea="pa_18"/>
    </trip>
    <trip depart="103.29" departLane="best" departSpeed="max" from="-217507856#1" id="veh12" to="169460482#3" type="veh_passenger"/>
    <trip depart="111.90" departLane="best" from="217507174#4" id="veh13" to="-192776713#1" type="veh_passenger"/>
    <trip depart="129.12" departLane="best" departSpeed="max" from="192776726#0" id="veh15" to="-169460466#2" type="veh_passenger"/>
    <trip depart="146.33" departLane="best" from="-169460479#1" id="veh17" to="-192776726#1" type="veh_passenger"/>
    <trip depart="154.94" departLane="best" from="-169460482#1" id="veh18" to="192776789#0" type="veh_passenger"/>
    <trip depart="163.55" departLane="best" from="169460482#3" id="veh19" to="-217507777" type="veh_passenger"/>
    <trip depart="172.15" departLane="best" from="213869282#1" id="veh20" to="59870959#3" type="veh_passenger"/>
    <trip depart="180.76" departLane="best" from="169460483#1" id="veh21" to="192776688#0" type="veh_passenger"/>
    <trip depart="189.37" departLane="best" from="-192776713#0" id="veh22" to="213869308#2" type="veh_passenger"/>
    <trip depart="197.98" departLane="best" from="-192776688#0" id="veh23" to="-217507785#2" type="veh_passenger"/>
    <trip depart="206.58" departLane="best" departSpeed="max" from="884865034" id="veh24" to="192776728#2" type="veh_passenger"/>
    <trip depart="215.19" departLane="best" from="-169460475#1" id="veh25" to="192776769#3" type="veh_passenger">
        <stop duration="3200" parkingArea="pa_42"/>
    </trip>
    <trip depart="223.80" departLane="best" departSpeed="max" from="217507777" id="veh26" to="214171970#1" type="veh_passenger">
        <stop duration="3200" parkingArea="pa_10"/>
    </trip>
    <trip depart="232.41" departLane="best" from="-192776769#0" id="veh27" to="-169460463#0" type="veh_passenger"/>
    <trip depart="241.01" departLane="best" from="-214171966" id="veh28" to="-192776767#0" type="veh_passenger">
        <stop duration="3200" parkingArea="pa_47"/>
    </trip>
    <trip depart="249.62" departLane="best" from="264388791#4" id="veh29" to="-214171964" type="veh_passenger">
        <stop duration="3200" parkingArea="pa_34"/>
    </trip>
    <trip depart="258.23" departLane="best" from="169460483#4" id="veh30" to="59871343#0" type="veh_passenger"/>
    <trip depart="266.84" departLane="best" from="59870822#5" id="veh31" to="152469310#3" type="veh_passenger">
        <stop duration="3200" parkingArea="pa_8"/>
    </trip>
    <trip depart="275.45" departLane="best" from="213869282#0" id="veh32" to="-192776748#5" type="veh_passenger"/>
    <trip depart="284.05" departLane="best" from="-169460475#3" id="veh33" to="-192776767#0" type="veh_passenger">
        <stop duration="3200" parkingArea="pa_47"/>
    </trip>
    <trip depart="292.66" departLane="best" departSpeed="max" from="169460479#0" id="veh34" to="59870822#1" type="veh_passenger"/>
    <trip depart="301.27" departLane="best" departSpeed="max" from="-463798202#2" id="veh35" to="-192776716#0" type="veh_passenger"/>
    <trip depart="309.88" departLane="best" departSpeed="max" from="884865034" id="veh36" to="-169460475#3" type="veh_passenger"/>
    <trip depart="318.48" departLane="best" from="-169460483#2" id="veh37" to="192776716#1" type="veh_passenger"/>
    <trip depart="327.09" departLane="best" departSpeed="max" from="214171964" id="veh38" to="1147646517#3" type="veh_passenger"/>
    <trip depart="335.70" departLane="best" from="169460475#3" id="veh39" to="-217507785#3" type="veh_passenger"/>
    <trip depart="344.31" departLane="best" departSpeed="max" from="884865034" id="veh40" to="169460479#3" type="veh_passenger"/>
    <trip depart="352.91" departLane="best" departSpeed="max" from="-152469310#3" id="veh41" to="213869296" type="veh_passenger">
        <stop duration="3200" parkingArea="pa_45"/>
    </trip>
    <trip depart="361.52" departLane="best" departSpeed="max" from="192776692" id="veh42" to="-169460480#1" type="veh_passenger"/>
    <trip depart="370.13" departLane="best" from="213869282#1" id="veh43" to="192776728#2" type="veh_passenger"/>
    <trip depart="378.74" departLane="best" from="169460483#3" id="veh44" to="1147646517#3" type="veh_passenger"/>
    <trip depart="387.35" departLane="best" departSpeed="max" from="1147646518#0" id="veh45" to="59871343#4" type="veh_passenger"/>
    <trip depart="395.95" departLane="best" departSpeed="max" from="169460461#0" id="veh46" to="-192776638#0" type="veh_passenger"/>
    <trip depart="404.56" departLane="best" from="59870822#5" id="veh47" to="59870820#0" type="veh_passenger"/>
    <trip depart="413.17" departLane="best" from="-213869458#0" id="veh48" to="192776728#2" type="veh_passenger"/>
    <trip depart="421.78" departLane="best" departSpeed="max" from="169460481#0" id="veh49" to="-169460482#0" type="veh_passenger"/>
    <trip depart="430.38" departLane="best" from="-192776789#4" id="veh50" to="-169460481#1" type="veh_passenger"/>
    <trip depart="438.99" departLane="best" departSpeed="max" from="213869392" id="veh51" to="169460479#4" type="veh_passenger"/>
    <trip depart="447.60" departLane="best" from="-1160207011" id="veh52" to="-214171965" type="veh_passenger">
        <stop duration="3200" parkingArea="pa_16"/>
    </trip>
    <trip depart="456.21" departLane="best" departSpeed="max" from="-213869458#2" id="veh53" to="-169460471#0" type="veh_passenger"/>
    <trip depart="464.81" departLane="best" from="264388791#4" id="veh54" to="59871343#2" type="veh_passenger"/>
    <trip depart="473.42" departLane="best" from="-169460477#0" id="veh55" to="214171966" type="veh_passenger"/>
    <trip depart="482.03" departLane="best" from="213869282#1" id="veh56" to="-169460481#0" type="veh_passenger"/>
    <trip depart="490.64" departLane="best" departSpeed="max" from="119801672" id="veh57" to="169460482#2" type="veh_passenger"/>
    <trip depart="499.24" departLane="best" from="213869282#0" id="veh58" to="59870820#0" type="veh_passenger"/>
    <trip depart="507.85" departLane="best" from="-843052938#0" id="veh59" to="192776711#1" type="veh_passenger"/>
    <trip depart="516.46" departLane="best" from="169460467#0" id="veh60" to="213869308#2" type="veh_passenger"/>
    <trip depart="525.07" departLane="best" departSpeed="max" from="-192776728#2" id="veh61" to="-213869458#1" type="veh_passenger">
        <stop duration="3200" parkingArea="pa_19"/>
    </trip>
    <trip depart="533.68" departLane="best" departSpeed="max" from="884865034" id="veh62" to="192776748#0" type="veh_passenger"/>
    <trip depart="542.28" departLane="best" departSpeed="max" from="1147646518#0" id="veh63" to="169460477#2" type="veh_passenger"/>
    <trip depart="550.89" departLane="best" from="-214171974#0" id="veh64" to="192776646#2" type="veh_passenger">
        <stop duration="3200" parkingArea="pa_38"/>
    </trip>
    <trip depart="559.50" departLane="best" from="-169460477#1" id="veh65" to="192776716#1" type="veh_passenger"/>
    <trip depart="576.71" departLane="best" from="217507856#0" id="veh67" to="-169460471#2" type="veh_passenger"/>
    <trip depart="585.32" departLane="best" departSpeed="max" from="-192776769#3" id="veh68" to="192776756#2" type="veh_passenger"/>
    <trip depart="593.93" departLane="best" from="-192776748#4" id="veh69" to="-169460481#0" type="veh_passenger"/>
    <trip depart="602.54" departLane="best" from="59870959#3" id="veh70" to="-192776640#0" type="veh_passenger"/>
    <trip depart="611.14" departLane="best" departSpeed="max" from="119801672" id="veh71" to="-214171974#1" type="veh_passenger"/>
    <trip depart="619.75" departLane="best" from="214171970#0" id="veh72" to="192776646#0" type="veh_passenger"/>
    <trip depart="628.36" departLane="best" from="-169460481#3" id="veh73" to="1147646517#3" type="veh_passenger"/>
    <trip depart="636.97" departLane="best" from="-843052938#0" id="veh74" to="169460460#2" type="veh_passenger"/>
    <trip depart="645.58" departLane="best" from="192776756#1" id="veh75" to="-192776767#1" type="veh_passenger"/>
    <trip depart="654.18" departLane="best" departSpeed="max" from="884865034" id="veh76" to="-169460477#4" type="veh_passenger"/>
    <trip depart="662.79" departLane="best" departSpeed="max" from="-463798202#2" id="veh77" to="-214171974#1" type="veh_passenger"/>
    <trip depart="680.01" departLane="best" from="-192776726#1" id="veh79" to="152469310#1" type="veh_passenger">
        <stop duration="3200" parkingArea="pa_9"/>
    </trip>
    <trip depart="688.61" departLane="best" departSpeed="max" from="-59871343#6" id="veh80" to="-192776789#0" type="veh_passenger"/>
    <trip depart="697.22" departLane="best" departSpeed="max" from="1147646518#0" id="veh81" to="463798202#2" type="veh_passenger"/>
    <trip depart="705.83" departLane="best" from="884872791" id="veh82" to="252967348#1" type="veh_passenger"/>
    <trip depart="714.44" departLane="best" from="884822432#1" id="veh83" to="59870959#1" type="veh_passenger"/>
    <trip depart="723.04" departLane="best" departSpeed="max" from="217507777" id="veh84" to="-169460483#0" type="veh_passenger"/>
    <trip depart="731.65" departLane="best" departSpeed="max" from="119801672" id="veh85" to="-192776713#0" type="veh_passenger"/>
    <trip depart="740.26" departLane="best" departSpeed="max" from="-217507856#1" id="veh86" to="884865507" type="veh_passenger"/>
    <trip depart="748.87" departLane="best" from="213869282#0" id="veh87" to="-214171974#1" type="veh_passenger"/>
    <trip depart="757.47" departLane="best" from="884821115#2" id="veh88" to="884865507" type="veh_passenger"/>
    <trip depart="766.08" departLane="best" from="884822432#1" id="veh89" to="192776640#2" type="veh_passenger"/>
    <trip depart="774.69" departLane="best" from="169460471#0" id="veh90" to="213869458#2" type="veh_passenger">
        <stop duration="3200" parkingArea="pa_26"/>
    </trip>
    <trip depart="783.30" departLane="best" from="-169460475#0" id="veh91" to="192776646#1" type="veh_passenger"/>
    <trip depart="791.91" departLane="best" departSpeed="max" from="169460461#0" id="veh92" to="463798201#0" type="veh_passenger"/>
    <trip depart="800.51" departLane="best" departSpeed="max" from="-192776671" id="veh93" to="-843052938#1" type="veh_passenger"/>
    <trip depart="809.12" departLane="best" from="-169460479#2" id="veh94" to="-192776638#3" type="veh_passenger"/>
    <trip depart="817.73" departLane="best" from="-192776769#2" id="veh95" to="-169460480#0" type="veh_passenger"/>
    <trip depart="826.34" departLane="best" from="463798202#1" id="veh96" to="-192776748#5" type="veh_passenger"/>
    <trip depart="834.94" departLane="best" from="169460479#4" id="veh97" to="-192776713#1" type="veh_passenger"/>
    <trip depart="843.55" departLane="best" departSpeed="max" from="-59871343#6" id="veh98" to="192776646#0" type="veh_passenger"/>
    <trip depart="860.77" departLane="best" from="-192776748#0" id="veh100" to="213869296" type="veh_passenger">
        <stop duration="3200" parkingArea="pa_45"/>
    </trip>
    <trip depart="869.37" departLane="best" departSpeed="max" from="-192776769#3" id="veh101" to="-59871343#0" type="veh_passenger"/>
    <trip depart="877.98" departLane="best" from="192776688#0" id="veh102" to="-213869392" type="veh_passenger"/>
    <trip depart="886.59" departLane="best" from="-214171966" id="veh103" to="213869458#2" type="veh_passenger">
        <stop duration="3200" parkingArea="pa_26"/>
    </trip>
    <trip depart="895.20" departLane="best" from="169460477#2" id="veh104" to="152469310#3" type="veh_passenger">
        <stop duration="3200" parkingArea="pa_8"/>
    </trip>
    <trip depart="903.81" departLane="best" from="884872791" id="veh105" to="884865507" type="veh_passenger"/>
    <trip depart="912.41" departLane="best" from="169460477#2" id="veh106" to="-192776713#0" type="veh_passenger"/>
    <trip depart="921.02" departLane="best" from="213869282#0" id="veh107" to="59870959#3" type="veh_passenger"/>
    <trip depart="929.63" departLane="best" from="463798200" id="veh108" to="59870820#0" type="veh_passenger"/>
    <trip depart="938.24" departLane="best" departSpeed="max" from="-217507785#4" id="veh109" to="-169460482#3" type="veh_passenger"/>
    <trip depart="946.84" departLane="best" departSpeed="max" from="217507775#0" id="veh110" to="192776789#5" type="veh_passenger"/>
    <trip depart="955.45" departLane="best" from="169460481#1" id="veh111" to="884865507" type="veh_passenger"/>
    <trip depart="964.06" departLane="best" from="169460483#4" id="veh112" to="152469310#2" type="veh_passenger">
        <stop duration="3200" parkingArea="pa_7"/>
    </trip>
    <trip depart="972.67" departLane="best" from="214171974#1" id="veh113" to="-213869392" type="veh_passenger"/>
    <trip depart="981.27" departLane="best" departSpeed="max" from="-192776640#2" id="veh114" to="-169460479#3" type="veh_passenger"/>
    <trip depart="998.49" departLane="best" from="192776748#2" id="veh116" to="-192776692" type="veh_passenger"/>
    <trip depart="1007.10" departLane="best" from="169460482#2" id="veh117" to="-192776767#0" type="veh_passenger">
        <stop duration="3200" parkingArea="pa_47"/>
    </trip>
    <trip depart="1015.70" departLane="best" from="-152469310#0" id="veh118" to="59870822#3" type="veh_passenger"/>
    <trip depart="1024.31" departLane="best" departSpeed="max" from="217507777" id="veh119" to="-169460477#1" type="veh_passenger"/>
    <trip depart="1032.92" departLane="best" from="-152469310#0" id="veh120" to="214171970#1" type="veh_passenger">
        <stop duration="3200" parkingArea="pa_10"/>
    </trip>
    <trip depart="1041.53" departLane="best" departSpeed="max" from="169460483#0" id="veh121" to="-192776767#0" type="veh_passenger">
        <stop duration="3200" parkingArea="pa_47"/>
    </trip>
    <trip depart="1058.74" departLane="best" from="-169460477#3" id="veh123" to="59870820#0" type="veh_passenger"/>
    <trip depart="1067.35" departLane="best" departSpeed="max" from="217507775#0" id="veh124" to="192776646#0" type="veh_passenger"/>
    <trip depart="1075.96" departLane="best" departSpeed="max" from="-192776646#2" id="veh125" to="-169460481#0" type="veh_passenger"/>
    <trip depart="1084.57" departLane="best" departSpeed="max" from="-213869458#2" id="veh126" to="59870822#1" type="veh_passenger"/>
    <trip depart="1093.17" departLane="best" departSpeed="max" from="214171964" id="veh127" to="463798202#2" type="veh_passenger"/>
    <trip depart="1101.78" departLane="best" from="59870822#1" id="veh128" to="192776711#0" type="veh_passenger"/>
    <trip depart="1110.39" departLane="best" from="-192776789#2" id="veh129" to="-169460479#0" type="veh_passenger"/>
    <trip depart="1119.00" departLane="best" departSpeed="max" from="213869392" id="veh130" to="59870820#0" type="veh_passenger"/>
    <trip depart="1127.60" departLane="best" from="-59871343#0" id="veh131" to="-192776713#2" type="veh_passenger"/>
    <trip depart="1136.21" departLane="best" departSpeed="max" from="-192776671" id="veh132" to="59870959#2" type="veh_passenger"/>
    <trip depart="1144.82" departLane="best" departSpeed="max" from="264388791#0" id="veh133" to="884823594" type="veh_passenger"/>
    <trip depart="1153.43" departLane="best" from="214171972" id="veh134" to="59870820#0" type="veh_passenger"/>
    <trip depart="1162.04" departLane="best" from="169460460#2" id="veh135" to="213869308#3" type="veh_passenger">
        <stop duration="3200" parkingArea="pa_33"/>
    </trip>
    <trip depart="1170.64" departLane="best" from="-214171972" id="veh136" to="59870959#2" type="veh_passenger"/>
    <trip depart="1179.25" departLane="best" from="214171965" id="veh137" to="463798202#2" type="veh_passenger"/>
    <trip depart="1187.86" departLane="best" from="214171972" id="veh138" to="-192776767#0" type="veh_passenger">
        <stop duration="3200" parkingArea="pa_47"/>
    </trip>
    <trip depart="1196.47" departLane="best" from="-213869458#0" id="veh139" to="-169460479#0" type="veh_passenger"/>
    <trip depart="1205.07" departLane="best" departSpeed="max" from="264388791#0" id="veh140" to="463798202#1" type="veh_passenger"/>
    <trip depart="1213.68" departLane="best" from="-192776756#1" id="veh141" to="217507785#4" type="veh_passenger">
        <stop duration="3200" parkingArea="pa_23"/>
    </trip>
    <trip depart="1222.29" departLane="best" from="1147646518#2" id="veh142" to="-213869392" type="veh_passenger"/>
    <trip depart="1230.90" departLane="best" departSpeed="max" from="214171964" id="veh143" to="-192776726#0" type="veh_passenger">
        <stop duration="3200" parkingArea="pa_40"/>
    </trip>
    <trip depart="1239.50" departLane="best" from="-169460460#2" id="veh144" to="-192776646#1" type="veh_passenger"/>
    <trip depart="1248.11" departLane="best" departSpeed="max" from="-214171970#1" id="veh145" to="463798202#2" type="veh_passenger"/>
    <trip depart="1256.72" departLane="best" departSpeed="max" from="884822432#0" id="veh146" to="192776789#0" type="veh_passenger"/>
    <trip depart="1265.33" departLane="best" departSpeed="max" from="169460483#0" id="veh147" to="59871343#2" type="veh_passenger"/>
    <trip depart="1273.94" departLane="best" departSpeed="max" from="884865034" id="veh148" to="-169460480#1" type="veh_passenger"/>
    <trip depart="1282.54" departLane="best" from="59870959#4" id="veh149" to="-169460479#3" type="veh_passenger"/>
    <trip depart="1291.15" departLane="best" from="884822432#1" id="veh150" to="-169460483#4" type="veh_passenger"/>
    <trip depart="1299.76" departLane="best" departSpeed="max" from="884822432#0" id="veh151" to="-192776767#0" type="veh_passenger">
        <stop duration="3200" parkingArea="pa_47"/>
    </trip>
    <trip depart="1308.37" departLane="best" from="-169460483#1" id="veh152" to="1147646517#3" type="veh_passenger"/>
    <trip depart="1316.97" departLane="best" from="-192776756#0" id="veh153" to="-214171964" type="veh_passenger">
        <stop duration="3200" parkingArea="pa_34"/>
    </trip>
    <trip depart="1325.58" departLane="best" departSpeed="max" from="169460481#0" id="veh154" to="169460475#4" type="veh_passenger"/>
    <trip depart="1334.19" departLane="best" from="-463798200" id="veh155" to="192776640#2" type="veh_passenger"/>
    <trip depart="1342.80" departLane="best" from="-1160207011" id="veh156" to="59870959#1" type="veh_passenger"/>
    <trip depart="1360.01" departLane="best" departSpeed="max" from="-217507785#4" id="veh158" to="-169460471#2" type="veh_passenger"/>
    <trip depart="1368.62" departLane="best" from="-214171965" id="veh159" to="264388791#5" type="veh_passenger"/>
    <trip depart="1377.23" departLane="best" from="-192776748#3" id="veh160" to="-213869392" type="veh_passenger"/>
    <trip depart="1385.83" departLane="best" departSpeed="max" from="-213869458#2" id="veh161" to="1147646517#0" type="veh_passenger"/>
    <trip depart="1394.44" departLane="best" departSpeed="max" from="-463798202#2" id="veh162" to="213869308#2" type="veh_passenger"/>
    <trip depart="1403.05" departLane="best" departSpeed="max" from="-192776640#2" id="veh163" to="1147646517#3" type="veh_passenger"/>
    <trip depart="1411.66" departLane="best" from="59870822#2" id="veh164" to="192776711#1" type="veh_passenger"/>
    <trip depart="1420.27" departLane="best" from="-213869458#1" id="veh165" to="169460482#1" type="veh_passenger"/>
    <trip depart="1428.87" departLane="best" from="-1160207011" id="veh166" to="-213869282#0" type="veh_passenger">
        <stop duration="3200" parkingArea="pa_1"/>
    </trip>
    <trip depart="1437.48" departLane="best" from="1147646517#0" id="veh167" to="192776640#2" type="veh_passenger"/>
    <trip depart="1446.09" departLane="best" departSpeed="max" from="1147646518#0" id="veh168" to="-192776713#0" type="veh_passenger"/>
    <trip depart="1454.70" departLane="best" departSpeed="max" from="119801672" id="veh169" to="59870822#2" type="veh_passenger"/>
    <trip depart="1463.30" departLane="best" departSpeed="max" from="214171964" id="veh170" to="-169460483#0" type="veh_passenger"/>
    <trip depart="1471.91" departLane="best" from="169460482#2" id="veh171" to="-214171973" type="veh_passenger"/>
    <trip depart="1480.52" departLane="best" from="192776688#1" id="veh172" to="-192776726#0" type="veh_passenger">
        <stop duration="3200" parkingArea="pa_40"/>
    </trip>
    <trip depart="1489.13" departLane="best" departSpeed="max" from="-192776728#2" id="veh173" to="-169460461#0" type="veh_passenger"/>
    <trip depart="1497.73" departLane="best" departSpeed="max" from="-192776769#3" id="veh174" to="169460466#1" type="veh_passenger"/>
    <trip depart="1506.34" departLane="best" departSpeed="max" from="217507777" id="veh175" to="169460471#3" type="veh_passenger"/>
    <trip depart="1514.95" departLane="best" departSpeed="max" from="-59871343#6" id="veh176" to="192776716#1" type="veh_passenger"/>
    <trip depart="1523.56" departLane="best" from="169460460#0" id="veh177" to="-192776748#4" type="veh_passenger"/>
    <trip depart="1532.17" departLane="best" from="192776638#0" id="veh178" to="152469310#1" type="veh_passenger">
        <stop duration="3200" parkingArea="pa_9"/>
    </trip>
    <trip depart="1540.77" departLane="best" from="192776769#1" id="veh179" to="214171970#1" type="veh_passenger">
        <stop duration="3200" parkingArea="pa_10"/>
    </trip>
    <trip depart="1549.38" departLane="best" from="-169460482#3" id="veh180" to="1147646517#3" type="veh_passenger"/>
    <trip depart="1557.99" departLane="best" from="-192776713#2" id="veh181" to="59871343#4" type="veh_passenger"/>
    <trip depart="1575.20" departLane="best" from="-192776789#2" id="veh183" to="59870822#0" type="veh_passenger"/>
    <trip depart="1583.81" departLane="best" departSpeed="max" from="1147646518#0" id="veh184" to="217507785#1" type="veh_passenger">
        <stop duration="3200" parkingArea="pa_21"/>
    </trip>
    <trip depart="1592.42" departLane="best" from="-192776646#0" id="veh185" to="884865507" type="veh_passenger"/>
    <trip depart="1601.03" departLane="best" from="169460479#5" id="veh186" to="59871343#4" type="veh_passenger"/>
    <trip depart="1609.63" departLane="best" from="59870822#0" id="veh187" to="192776711#0" type="veh_passenger"/>
    <trip depart="1618.24" departLane="best" from="-192776748#3" id="veh188" to="-169460475#1" type="veh_passenger"/>
    <trip depart="1626.85" departLane="best" departSpeed="max" from="217507775#0" id="veh189" to="169460482#1" type="veh_passenger"/>
    <trip depart="1635.46" departLane="best" departSpeed="max" from="119801672" id="veh190" to="-192776767#0" type="veh_passenger">
        <stop duration="3200" parkingArea="pa_47"/>
    </trip>
    <trip depart="1644.06" departLane="best" departSpeed="max" from="169460482#0" id="veh191" to="192776769#1" type="veh_passenger"/>
    <trip depart="1652.67" departLane="best" from="169460477#4" id="veh192" to="-213869282#0" type="veh_passenger">
        <stop duration="3200" parkingArea="pa_1"/>
    </trip>
    <trip depart="1669.89" departLane="best" departSpeed="max" from="192776726#0" id="veh194" to="-169460471#0" type="veh_passenger"/>
    <trip depart="1678.50" departLane="best" from="-59871343#1" id="veh195" to="169460481#3" type="veh_passenger"/>
    <trip depart="1687.10" departLane="best" departSpeed="max" from="-59871343#6" id="veh196" to="-192776692" type="veh_passenger"/>
    <trip depart="1695.71" departLane="best" departSpeed="max" from="-59871343#6" id="veh197" to="59870822#3" type="veh_passenger"/>
    <trip depart="1704.32" departLane="best" departSpeed="max" from="169460479#0" id="veh198" to="192776789#3" type="veh_passenger"/>
    <trip depart="1712.93" departLane="best" departSpeed="max" from="-217507856#1" id="veh199" to="152469310#1" type="veh_passenger">
        <stop duration="3200" parkingArea="pa_9"/>
    </trip>
    <trip depart="1721.53" departLane="best" from="217507174#4" id="veh200" to="213869458#2" type="veh_passenger">
        <stop duration="3200" parkingArea="pa_26"/>
    </trip>
    <trip depart="1730.14" departLane="best" from="217507785#1" id="veh201" to="59871343#4" type="veh_passenger"/>
    <trip depart="1738.75" departLane="best" departSpeed="max" from="-59871343#6" id="veh202" to="213869458#1" type="veh_passenger">
        <stop duration="3200" parkingArea="pa_20"/>
    </trip>
    <trip depart="1755.96" departLane="best" from="-214171973" id="veh204" to="192776769#2" type="veh_passenger"/>
    <trip depart="1764.57" departLane="best" departSpeed="max" from="119801672" id="veh205" to="-169460481#0" type="veh_passenger"/>
    <trip depart="1773.18" departLane="best" departSpeed="max" from="169460482#0" id="veh206" to="-169460461#1" type="veh_passenger"/>
    <trip depart="1781.79" departLane="best" from="-463798202#1" id="veh207" to="192776638#1" type="veh_passenger">
        <stop duration="3200" parkingArea="pa_44"/>
    </trip>
    <trip depart="1790.40" departLane="best" from="169460461#1" id="veh208" to="192776728#2" type="veh_passenger"/>
    <trip depart="1799.00" departLane="best" departSpeed="max" from="-192776640#2" id="veh209" to="152469310#3" type="veh_passenger">
        <stop duration="3200" parkingArea="pa_8"/>
    </trip>
    <trip depart="1807.61" departLane="best" from="169460471#2" id="veh210" to="-217507785#2" type="veh_passenger"/>
    <trip depart="1816.22" departLane="best" from="192776713#2" id="veh211" to="-217507785#2" type="veh_passenger"/>
    <trip depart="1824.83" departLane="best" from="-192776769#1" id="veh212" to="252967348#0" type="veh_passenger"/>
    <trip depart="1833.43" departLane="best" from="-192776789#4" id="veh213" to="-169460475#1" type="veh_passenger"/>
    <trip depart="1842.04" departLane="best" from="884872791" id="veh214" to="-217507174#3" type="veh_passenger"/>
    <trip depart="1850.65" departLane="best" from="169460483#2" id="veh215" to="214171973" type="veh_passenger"/>
    <trip depart="1859.26" departLane="best" from="169460483#3" id="veh216" to="213869458#2" type="veh_passenger">
        <stop duration="3200" parkingArea="pa_26"/>
    </trip>
    <trip depart="1867.86" departLane="best" from="843052938#1" id="veh217" to="-192776692" type="veh_passenger"/>
    <trip depart="1876.47" departLane="best" from="-169460460#0" id="veh218" to="-169460482#0" type="veh_passenger"/>
    <trip depart="1885.08" departLane="best" departSpeed="max" from="-192776640#2" id="veh219" to="192776756#2" type="veh_passenger"/>
    <trip depart="1893.69" departLane="best" from="169460475#4" id="veh220" to="-192776713#2" type="veh_passenger"/>
    <trip depart="1902.29" departLane="best" departSpeed="max" from="192776726#0" id="veh221" to="214171970#1" type="veh_passenger">
        <stop duration="3200" parkingArea="pa_10"/>
    </trip>
    <trip depart="1910.90" departLane="best" from="-192776769#0" id="veh222" to="-169460479#3" type="veh_passenger"/>
    <trip depart="1919.51" departLane="best" from="214171974#2" id="veh223" to="884821115#1" type="veh_passenger"/>
    <trip depart="1928.12" departLane="best" departSpeed="max" from="-213869458#2" id="veh224" to="192776769#1" type="veh_passenger"/>
    <trip depart="1936.73" departLane="best" departSpeed="max" from="884822432#0" id="veh225" to="59871343#0" type="veh_passenger"/>
    <trip depart="1945.33" departLane="best" from="-169460482#1" id="veh226" to="214171970#1" type="veh_passenger">
        <stop duration="3200" parkingArea="pa_10"/>
    </trip>
    <trip depart="1962.55" departLane="best" from="-192776638#2" id="veh228" to="884865507" type="veh_passenger"/>
    <trip depart="1971.16" departLane="best" departSpeed="max" from="213869392" id="veh229" to="-217507174#2" type="veh_passenger"/>
    <trip depart="1979.76" departLane="best" from="-884823594" id="veh230" to="-217507777" type="veh_passenger"/>
    <trip depart="1988.37" departLane="best" departSpeed="max" from="169460461#0" id="veh231" to="-214171974#2" type="veh_passenger"/>
    <trip depart="1996.98" departLane="best" departSpeed="max" from="217507777" id="veh232" to="217507856#1" type="veh_passenger"/>